Circuit: * Z:\media\data\peterl\Documents\2019 01_Spring\senior_project\spice\lockout2_v1.asc

WARNING: Less than two connections to node NC_02.  This node is used by S:U1:1.
Direct Newton iteration for .op point succeeded.

Date: Mon Sep 02 22:24:40 2019
Total elapsed time: 0.162 seconds.

tnom = 27
temp = 27
method = modified trap
totiter = 4689
traniter = 4684
tranpoints = 1854
accept = 1642
rejected = 212
matrix size = 22
fillins = 1
solver = Normal
Matrix Compiler1: 926 bytes object code size  1.2/1.0/[0.8]
Matrix Compiler2: 1.38 KB object code size  1.0/1.3/[0.9]

