Circuit: * Z:\media\data\peterl\Documents\2019 01_Spring\senior_project\spice\lockout2_v0.asc

WARNING: Less than two connections to node NC_02.  This node is used by S:U1:1.
Direct Newton iteration for .op point succeeded.

Date: Fri Feb 08 13:55:50 2019
Total elapsed time: 0.123 seconds.

tnom = 27
temp = 27
method = modified trap
totiter = 4520
traniter = 4512
tranpoints = 1765
accept = 1590
rejected = 175
matrix size = 22
fillins = 1
solver = Normal
Matrix Compiler1: 926 bytes object code size  1.3/1.1/[0.9]
Matrix Compiler2: 1.38 KB object code size  1.0/1.5/[1.0]

