Circuit: * Z:\media\data\peterl\Documents\2019 01_Spring\senior_project\spice\lockout_v0.asc

Direct Newton iteration for .op point succeeded.

Date: Sun Jan 27 16:00:23 2019
Total elapsed time: 0.106 seconds.

tnom = 27
temp = 27
method = modified trap
totiter = 3285
traniter = 3274
tranpoints = 1375
accept = 1294
rejected = 81
matrix size = 26
fillins = 0
solver = Normal
Matrix Compiler1: 1.12 KB object code size  1.5/1.1/[1.0]
Matrix Compiler2: off  [1.0]/1.3/1.1

